Version 4
SHEET 1 1384 680
WIRE 592 -112 384 -112
WIRE 784 -112 592 -112
WIRE 384 -48 384 -112
WIRE 592 -48 592 -112
WIRE 784 -48 784 -112
WIRE 784 48 784 32
WIRE 832 48 784 48
WIRE 1056 48 832 48
WIRE 1264 48 1120 48
WIRE 832 96 832 48
WIRE 592 144 592 32
WIRE 768 144 592 144
WIRE 1264 144 1264 48
WIRE 976 192 832 192
WIRE 1104 192 1040 192
WIRE 592 288 592 144
WIRE 832 320 832 192
WIRE 1104 320 1104 192
WIRE 592 448 592 368
WIRE 608 448 592 448
WIRE 832 448 832 400
WIRE 832 448 608 448
WIRE 1104 448 1104 400
WIRE 1104 448 832 448
WIRE 1264 448 1264 224
WIRE 1264 448 1104 448
FLAG 384 32 0
FLAG 608 448 0
SYMBOL Contrib\\Toshiba\\bjt\\TDTC114Y 768 96 R0
SYMATTR InstName U1
SYMBOL res 816 304 R0
SYMATTR InstName R1
SYMATTR Value 470
SYMBOL res 768 -64 R0
SYMATTR InstName R2
SYMATTR Value 3.3k
SYMBOL res 576 -64 R0
SYMATTR InstName R3
SYMATTR Value 56k
SYMBOL res 576 272 R0
SYMATTR InstName R4
SYMATTR Value 8.2k
SYMBOL res 1248 128 R0
SYMATTR InstName RL
SYMATTR Value 10k
SYMBOL polcap 1120 32 R90
WINDOW 0 0 32 VBottom 2
WINDOW 3 32 32 VTop 2
SYMATTR InstName C1
SYMATTR Value 10Ą
SYMATTR Description Capacitor
SYMATTR Type cap
SYMATTR SpiceLine V=10 Irms=0 Rser=7 Lser=0 mfg="AVX" pn="TAJA225M010" type="Tantalum"
SYMBOL cap 1040 176 R90
WINDOW 0 0 32 VBottom 2
WINDOW 3 32 32 VTop 2
SYMATTR InstName C2
SYMATTR Value 10Ą
SYMATTR SpiceLine V=2.7 Irms=0 Rser=0.035 Lser=25n mfg="W³rth Elektronik" pn="850617021004 WCAP-STSC 10x20" type="Super Capacitor"
SYMBOL voltage 1104 304 R0
WINDOW 123 0 0 Left 0
WINDOW 39 0 0 Left 0
SYMATTR InstName V1
SYMATTR Value SINE(0 0.05 1k)
SYMBOL voltage 384 -64 R0
SYMATTR InstName V2
SYMATTR Value 12
TEXT 1144 -32 Left 2 !.tran 0 10m 10Ą
TEXT 880 176 Left 2 ;Vin
TEXT 1280 136 VLeft 2 ;Vout
