Version 4
SHEET 1 924 692
WIRE 496 32 304 32
WIRE 720 32 496 32
WIRE 304 64 304 32
WIRE 496 160 496 112
WIRE 592 160 496 160
WIRE 752 160 656 160
WIRE 128 208 64 208
WIRE 288 208 192 208
WIRE 304 208 304 144
WIRE 304 208 288 208
WIRE 432 208 304 208
WIRE 448 208 432 208
WIRE 752 208 752 160
WIRE 64 288 64 208
WIRE 496 288 496 256
WIRE 608 288 496 288
WIRE 288 304 288 208
WIRE 496 304 496 288
WIRE 608 320 608 288
WIRE 64 464 64 368
WIRE 288 464 288 384
WIRE 288 464 64 464
WIRE 496 464 496 384
WIRE 496 464 288 464
WIRE 608 464 608 384
WIRE 608 464 496 464
WIRE 752 464 752 288
WIRE 752 464 608 464
WIRE 288 480 288 464
FLAG 720 112 0
FLAG 288 480 0
SYMBOL voltage 720 16 R0
SYMATTR InstName V2
SYMATTR Value 12
SYMBOL voltage 64 272 R0
WINDOW 123 24 110 Left 2
WINDOW 39 0 0 Left 0
SYMATTR InstName V3
SYMATTR Value SINE(0 10m 1k)
SYMATTR Value2 AC 10mv
SYMBOL res 480 288 R0
SYMATTR InstName R1
SYMATTR Value 1.18k
SYMBOL res 480 16 R0
SYMATTR InstName R2
SYMATTR Value 1k
SYMBOL res 736 192 R0
SYMATTR InstName R3
SYMATTR Value 10k
SYMBOL res 272 288 R0
SYMATTR InstName R4
SYMATTR Value 11.18k
SYMBOL res 288 48 R0
SYMATTR InstName R5
SYMATTR Value 10.67k
SYMBOL Contrib\\Toshiba\\bjt\\TDTC114Y 432 160 R0
SYMATTR InstName U1
SYMBOL cap 656 144 R90
WINDOW 0 0 32 VBottom 2
WINDOW 3 32 32 VTop 2
SYMATTR InstName C1
SYMATTR Value 10”
SYMBOL cap 624 384 R180
WINDOW 0 24 56 Left 2
WINDOW 3 24 8 Left 2
SYMATTR InstName C2
SYMATTR Value 47”
SYMBOL cap 192 192 R90
WINDOW 0 0 32 VBottom 2
WINDOW 3 32 32 VTop 2
SYMATTR InstName C3
SYMATTR Value 10”
TEXT 72 480 Left 2 !.tran 10
TEXT 80 600 Left 6 ;Common Emitter Transistor
