Version 4
SHEET 1 880 680
WIRE 352 0 192 0
WIRE 512 0 352 0
WIRE 192 32 192 0
WIRE 352 32 352 0
WIRE 512 128 512 0
WIRE 240 176 192 176
WIRE 304 176 288 176
WIRE 352 176 352 112
WIRE 352 176 304 176
WIRE 448 176 352 176
WIRE 560 224 512 224
WIRE 672 224 624 224
WIRE 192 272 192 176
WIRE 352 288 352 176
WIRE 512 288 512 224
WIRE 672 288 672 224
FLAG 192 112 0
FLAG 192 352 0
FLAG 352 368 0
FLAG 512 368 0
FLAG 672 368 0
SYMBOL res 336 272 R0
SYMATTR InstName R1
SYMATTR Value 6.8k
SYMBOL res 656 272 R0
SYMATTR InstName R2
SYMATTR Value 1k
SYMBOL res 336 16 R0
SYMATTR InstName R3
SYMATTR Value 33k
SYMBOL res 496 272 R0
SYMATTR InstName R4
SYMATTR Value 470
SYMBOL cap 304 160 R90
WINDOW 0 0 32 VBottom 2
WINDOW 3 32 32 VTop 2
SYMATTR InstName C2
SYMATTR Value 10”
SYMBOL voltage 192 256 R0
WINDOW 123 24 110 Left 2
WINDOW 39 0 0 Left 0
SYMATTR InstName V1
SYMATTR Value SINE(0 0.01 1k)
SYMATTR Value2 AC 10
SYMBOL Misc\\battery 192 16 R0
SYMATTR InstName V3
SYMATTR Value 12
SYMBOL Contrib\\Toshiba\\bjt\\TDTC114Y 448 128 R0
SYMATTR InstName U1
SYMBOL cap 624 208 R90
WINDOW 0 0 32 VBottom 2
WINDOW 3 32 32 VTop 2
SYMATTR InstName C3
SYMATTR Value 1”
TEXT 568 16 Left 2 !.tran 10m
TEXT 184 168 Left 2 ;Vin
TEXT 656 216 Left 2 ;Vout
