Version 4
SHEET 1 880 680
WIRE 0 32 -80 32
WIRE 256 32 80 32
WIRE -80 80 -80 32
WIRE 0 80 0 32
WIRE 80 80 80 32
WIRE 176 80 144 80
WIRE 256 80 256 32
WIRE 256 80 240 80
WIRE 272 80 256 80
WIRE 368 80 336 80
WIRE 144 112 144 80
WIRE 144 112 112 112
WIRE 368 112 368 80
WIRE 416 112 368 112
WIRE 416 128 416 112
WIRE 144 144 144 112
WIRE 176 144 144 144
WIRE 256 144 240 144
WIRE 272 144 256 144
WIRE 368 144 368 112
WIRE 368 144 336 144
WIRE 80 176 80 160
WIRE 256 176 256 144
WIRE 256 176 80 176
WIRE -80 208 -80 160
WIRE 0 208 0 160
WIRE 0 208 -80 208
WIRE 112 208 112 112
WIRE 320 208 112 208
WIRE 416 208 320 208
FLAG 320 208 0
SYMBOL diode 176 96 R270
WINDOW 0 32 32 VTop 2
WINDOW 3 0 32 VBottom 2
SYMATTR InstName D1
SYMATTR Value 1N4148
SYMBOL diode 272 96 R270
WINDOW 0 32 32 VTop 2
WINDOW 3 0 32 VBottom 2
SYMATTR InstName D2
SYMATTR Value 1N4148
SYMBOL diode 176 160 R270
WINDOW 0 32 32 VTop 2
WINDOW 3 0 32 VBottom 2
SYMATTR InstName D3
SYMATTR Value 1N4148
SYMBOL diode 272 160 R270
WINDOW 0 32 32 VTop 2
WINDOW 3 0 32 VBottom 2
SYMATTR InstName D4
SYMATTR Value 1N4148
SYMBOL res 400 112 R0
SYMATTR InstName R1
SYMATTR Value 1k
SYMBOL ind2 -16 64 R0
SYMATTR InstName L1
SYMATTR Value 1m
SYMATTR Type ind
SYMBOL ind2 96 64 M0
SYMATTR InstName L2
SYMATTR Value 2m
SYMATTR Type ind
SYMBOL voltage -80 64 R0
WINDOW 123 0 0 Left 0
WINDOW 39 24 110 Left 2
SYMATTR InstName V1
SYMATTR Value SINE(0 1 1k)
SYMATTR SpiceLine Rser=0.1m
TEXT 8 176 Left 3 !K L1 L2 1
TEXT -72 216 Left 2 !.tran 0.1ms
