Version 4
SHEET 1 880 1012
WIRE 256 -16 240 -16
WIRE 464 -16 336 -16
WIRE 16 32 -32 32
WIRE 224 32 96 32
WIRE 560 48 288 48
WIRE 560 64 560 48
WIRE -32 80 -32 32
WIRE 288 80 288 48
WIRE 128 96 80 96
WIRE 224 96 224 32
WIRE 224 96 208 96
WIRE 240 96 240 -16
WIRE 240 96 224 96
WIRE 256 96 240 96
WIRE 464 112 464 -16
WIRE 464 112 320 112
WIRE 256 128 240 128
WIRE 80 144 80 96
WIRE 224 224 224 96
WIRE 224 224 208 224
WIRE 288 240 288 144
WIRE 128 288 128 224
WIRE 288 320 288 304
WIRE 144 368 128 368
WIRE -32 400 -32 160
WIRE 80 400 80 224
WIRE 80 400 -32 400
WIRE 240 400 240 128
WIRE 240 400 80 400
WIRE 288 400 288 320
WIRE 288 400 240 400
WIRE 560 400 560 144
WIRE 560 400 288 400
WIRE 128 416 128 368
FLAG 288 400 0
SYMBOL voltage -32 64 R0
SYMATTR InstName V1
SYMATTR Value 3
SYMBOL voltage 80 128 R0
SYMATTR InstName V2
SYMATTR Value 4
SYMBOL voltage 128 272 R0
SYMATTR InstName V3
SYMATTR Value 2
SYMBOL res 112 16 R90
WINDOW 0 0 56 VBottom 2
WINDOW 3 32 56 VTop 2
SYMATTR InstName R1
SYMATTR Value 20k
SYMBOL res 224 80 R90
WINDOW 0 0 56 VBottom 2
WINDOW 3 32 56 VTop 2
SYMATTR InstName R2
SYMATTR Value 20k
SYMBOL res 224 208 R90
WINDOW 0 0 56 VBottom 2
WINDOW 3 32 56 VTop 2
SYMATTR InstName R3
SYMATTR Value 20k
SYMBOL res 352 -32 R90
WINDOW 0 0 56 VBottom 2
WINDOW 3 32 56 VTop 2
SYMATTR InstName R4
SYMATTR Value 20k
SYMBOL voltage 560 48 R0
SYMATTR InstName V4
SYMATTR Value 15
SYMBOL voltage 288 224 R0
SYMATTR InstName V5
SYMATTR Value 15
SYMBOL OpAmps\\UniversalOpAmp 288 112 R0
SYMATTR InstName U1
TEXT 584 504 Left 2 !.op
