Version 4
SHEET 1 880 680
WIRE 384 32 192 32
WIRE 272 48 144 48
WIRE 384 48 384 32
WIRE 192 128 192 32
WIRE 64 144 64 48
WIRE 160 144 64 144
WIRE 64 160 64 144
WIRE 272 160 272 48
WIRE 272 160 224 160
WIRE 384 160 384 128
WIRE 464 160 384 160
WIRE 160 176 96 176
WIRE 384 176 384 160
WIRE 464 176 464 160
WIRE -16 224 -16 160
WIRE 96 256 96 176
WIRE 192 256 192 192
WIRE 384 256 192 256
WIRE -16 336 -16 304
FLAG 464 176 0
FLAG 96 256 0
FLAG -16 336 0
SYMBOL res 80 144 R90
WINDOW 0 0 56 VBottom 2
WINDOW 3 32 56 VTop 2
SYMATTR InstName R1
SYMATTR Value 100
SYMBOL res 160 32 R90
WINDOW 0 0 56 VBottom 2
WINDOW 3 32 56 VTop 2
SYMATTR InstName R2
SYMATTR Value 500
SYMBOL voltage 384 32 R0
SYMATTR InstName V1
SYMATTR Value 15
SYMBOL voltage 384 160 R0
SYMATTR InstName V2
SYMATTR Value 15
SYMBOL voltage -16 208 R0
WINDOW 123 0 0 Left 0
WINDOW 39 0 0 Left 0
SYMATTR InstName V3
SYMATTR Value SINE(0 5 1k)
SYMBOL OpAmps\\UniversalOpAmp 192 160 R0
SYMATTR InstName U1
TEXT -48 360 Left 2 !.tran 0 100m 90m 1m
