Version 4
SHEET 1 880 680
WIRE 416 112 256 112
WIRE 320 144 224 144
WIRE 416 160 416 112
WIRE 256 256 256 112
WIRE 16 272 0 272
WIRE 144 272 144 144
WIRE 144 272 96 272
WIRE 224 272 144 272
WIRE 416 272 416 240
WIRE 528 272 416 272
WIRE 320 288 320 144
WIRE 320 288 288 288
WIRE 528 288 528 272
WIRE 224 304 144 304
WIRE 0 320 0 272
WIRE 256 320 256 304
WIRE 416 336 416 272
WIRE 144 352 144 304
WIRE 0 432 0 400
WIRE 256 448 256 320
WIRE 416 448 416 416
WIRE 416 448 256 448
FLAG 528 288 0
FLAG 144 352 0
FLAG 0 432 0
SYMBOL voltage 416 144 R0
SYMATTR InstName V1
SYMATTR Value 15
SYMBOL voltage 416 320 R0
SYMATTR InstName V2
SYMATTR Value 15
SYMBOL voltage 0 304 R0
WINDOW 123 24 110 Left 2
WINDOW 39 0 0 Left 0
SYMATTR InstName V3
SYMATTR Value SINE(0 2 1k)
SYMATTR Value2 AC 1
SYMBOL res 240 128 R90
WINDOW 0 0 56 VBottom 2
WINDOW 3 32 56 VTop 2
SYMATTR InstName R1
SYMATTR Value 500
SYMBOL res 112 256 R90
WINDOW 0 0 56 VBottom 2
WINDOW 3 32 56 VTop 2
SYMATTR InstName R2
SYMATTR Value 100
SYMBOL OpAmps\\UniversalOpAmp 256 288 R0
SYMATTR InstName U2
TEXT 0 488 Left 2 !.tran 0 100m 90m 1m
TEXT 136 584 Left 2 ;Fig- Inverting Amplifier
