Version 4
SHEET 1 880 680
WIRE 96 112 80 112
WIRE 256 112 160 112
WIRE 304 128 208 128
WIRE 304 144 304 128
WIRE 80 192 80 112
WIRE 256 192 256 112
WIRE 256 192 160 192
WIRE 208 208 208 128
WIRE 80 224 80 192
WIRE 80 224 64 224
WIRE 176 224 80 224
WIRE 384 224 304 224
WIRE 256 240 256 192
WIRE 256 240 240 240
WIRE 384 240 384 224
WIRE -80 256 -80 224
WIRE 176 256 128 256
WIRE 304 256 304 224
WIRE 208 384 208 272
WIRE 304 384 304 336
WIRE 304 384 208 384
FLAG 384 240 0
FLAG -80 336 0
FLAG 128 336 0
SYMBOL voltage 304 128 R0
SYMATTR InstName V1
SYMATTR Value 15
SYMBOL voltage 304 240 R0
SYMATTR InstName V2
SYMATTR Value 15
SYMBOL voltage -80 240 R0
WINDOW 123 0 0 Left 0
WINDOW 39 0 0 Left 0
SYMATTR InstName V3
SYMATTR Value SINE(0 1 1k)
SYMBOL res 176 176 R90
WINDOW 0 0 56 VBottom 2
WINDOW 3 32 56 VTop 2
SYMATTR InstName R1
SYMATTR Value 1k
SYMBOL res 112 240 R0
SYMATTR InstName R2
SYMATTR Value 1.5
SYMBOL res 16 208 R90
WINDOW 0 0 56 VBottom 2
WINDOW 3 32 56 VTop 2
SYMATTR InstName R3
SYMATTR Value 1.6k
SYMBOL cap 160 96 R90
WINDOW 0 0 32 VBottom 2
WINDOW 3 32 32 VTop 2
SYMATTR InstName C1
SYMATTR Value 0.001”
SYMBOL cap 64 208 R90
WINDOW 0 0 32 VBottom 2
WINDOW 3 32 32 VTop 2
SYMATTR InstName C2
SYMATTR Value 0.01”
SYMBOL OpAmps\\UniversalOpAmp 208 240 R0
SYMATTR InstName U1
TEXT 192 400 Left 2 !.tran 5ms
TEXT -104 208 Left 4 ;Vin
TEXT 264 248 VLeft 4 ;Vout
TEXT -32 440 Left 5 ;Fig-Differentiator
