Version 4
SHEET 1 880 680
WIRE 128 64 112 64
WIRE 256 64 192 64
WIRE 304 96 208 96
WIRE 304 112 304 96
WIRE 112 128 112 64
WIRE 256 128 256 64
WIRE 256 128 192 128
WIRE 208 192 208 96
WIRE 112 208 112 128
WIRE 112 208 80 208
WIRE 176 208 112 208
WIRE 304 208 304 192
WIRE 400 208 304 208
WIRE -64 224 -64 208
WIRE 256 224 256 128
WIRE 256 224 240 224
WIRE 304 224 304 208
WIRE 400 224 400 208
WIRE 176 240 112 240
WIRE 112 256 112 240
WIRE 208 320 208 256
WIRE 304 320 304 304
WIRE 304 320 208 320
FLAG 400 224 0
FLAG 112 336 0
FLAG -64 304 0
SYMBOL voltage 304 96 R0
SYMATTR InstName V1
SYMATTR Value 15
SYMBOL voltage 304 208 R0
SYMATTR InstName V2
SYMATTR Value 15
SYMBOL voltage -64 208 R0
WINDOW 123 0 0 Left 0
WINDOW 39 0 0 Left 0
SYMATTR InstName V3
SYMATTR Value SINE(0 1 1k)
SYMBOL res 208 112 R90
WINDOW 0 0 56 VBottom 2
WINDOW 3 32 56 VTop 2
SYMATTR InstName R1
SYMATTR Value 16k
SYMBOL res 96 240 R0
SYMATTR InstName R2
SYMATTR Value 1.5k
SYMBOL res 32 192 R90
WINDOW 0 0 56 VBottom 2
WINDOW 3 32 56 VTop 2
SYMATTR InstName R3
SYMATTR Value 1.6k
SYMBOL cap 192 48 R90
WINDOW 0 0 32 VBottom 2
WINDOW 3 32 32 VTop 2
SYMATTR InstName C1
SYMATTR Value 0.001n
SYMBOL OpAmps\\UniversalOpAmp 208 224 R0
SYMATTR InstName U1
SYMBOL cap 80 192 R90
WINDOW 0 0 32 VBottom 2
WINDOW 3 32 32 VTop 2
SYMATTR InstName C3
SYMATTR Value 0.01”
TEXT -48 376 Left 6 ;Fig -Differentiator
TEXT 216 328 Left 2 !.tran 5ms
TEXT -104 176 Left 5 ;Vin
TEXT 248 216 VLeft 5 ;Vout
