Version 4
SHEET 1 880 680
WIRE 80 96 16 96
WIRE 208 96 160 96
WIRE 352 96 208 96
WIRE 16 144 16 96
WIRE 352 144 352 96
WIRE 208 160 208 96
WIRE 16 256 16 224
WIRE 208 256 208 224
WIRE 208 256 16 256
WIRE 352 256 352 224
WIRE 352 256 208 256
FLAG 16 256 0
SYMBOL res 176 80 R90
WINDOW 0 0 56 VBottom 2
WINDOW 3 32 56 VTop 2
SYMATTR InstName R1
SYMATTR Value 2k
SYMBOL res 368 240 R180
WINDOW 0 36 76 Left 2
WINDOW 3 36 40 Left 2
SYMATTR InstName R2
SYMATTR Value 1k
SYMBOL voltage 16 128 R0
SYMATTR InstName V1
SYMATTR Value 12
SYMBOL zener 224 224 R180
WINDOW 0 24 64 Left 2
WINDOW 3 24 0 Left 2
SYMATTR InstName D1
SYMATTR Value BZX84C6V2L
TEXT 32 272 Left 2 !.tran 0 10m 0
