Version 4
SHEET 1 880 680
WIRE 352 96 240 96
WIRE 288 128 208 128
WIRE 128 160 128 128
WIRE 128 160 48 160
WIRE 240 176 240 96
WIRE 128 192 128 160
WIRE 208 192 128 192
WIRE 288 208 288 128
WIRE 288 208 272 208
WIRE 160 224 64 224
WIRE 208 224 160 224
WIRE -32 240 -32 160
WIRE 64 240 64 224
WIRE 160 240 160 224
WIRE 352 240 352 96
WIRE -32 336 -32 320
WIRE 64 336 64 320
WIRE 64 336 -32 336
WIRE 160 336 160 320
WIRE 160 336 64 336
WIRE 240 336 240 320
WIRE 240 336 160 336
WIRE 352 336 352 320
WIRE 352 336 240 336
WIRE 64 352 64 336
SYMBOL voltage 352 224 R0
SYMATTR InstName V1
SYMATTR Value 15
SYMBOL res 224 112 R90
WINDOW 0 0 56 VBottom 2
WINDOW 3 32 56 VTop 2
SYMATTR InstName R1
SYMATTR Value 20k
SYMBOL OpAmps\\UniversalOpAmp 240 208 R0
SYMATTR InstName U1
SYMBOL voltage 240 224 R0
SYMATTR InstName V5
SYMATTR Value 15
SYMBOL voltage 64 224 R0
SYMATTR InstName V6
SYMATTR Value 7
SYMBOL voltage -32 224 R0
SYMATTR InstName V7
SYMATTR Value 4
SYMBOL res 64 144 R90
WINDOW 0 0 56 VBottom 2
WINDOW 3 32 56 VTop 2
SYMATTR InstName R5
SYMATTR Value 20k
SYMBOL res 176 336 R180
WINDOW 0 36 76 Left 2
WINDOW 3 36 40 Left 2
SYMATTR InstName R6
SYMATTR Value 20k
TEXT -32 352 Left 2 ;.op
TEXT -32 368 Left 2 !.tran 10ms
